tests/data/power_flow/pandapower-asymmetric-source/asym_output.json
{
  "line": [
    {
      "id": 3,
      "p_from": [
        22.683493796193943,
        22.683493796191396,
        22.68349379618338
      ],
      "q_from": [
        -115471.66220657346,
        -115471.66220657344,
        -115471.66220657344
      ],
      "i_from": [
        19.047884727163716,
        19.047884727163716,
        19.047884727163716
      ],
      "p_to": [
        5.403552060600896e-07,
        5.403552060600896e-07,
        5.403552060600894e-07
      ],
      "q_to": [
        4.4046267460832686e-07,
        4.4046267460832686e-07,
        4.404626746083268e-07
      ],
      "i_to": [
        1.1496061225823551e-10,
        1.1496061225823551e-10,
        1.1496061225823549e-10
      ]
    },
    {
      "id": 6,
      "p_from": [
        5.403552060600896e-07,
        5.403552060600896e-07,
        5.403552060600894e-07
      ],
      "q_from": [
        4.4046267460832686e-07,
        4.4046267460832686e-07,
        4.404626746083268e-07
      ],
      "i_from": [
        1.1496061225823551e-10,
        1.1496061225823551e-10,
        1.1496061225823549e-10
      ],
      "p_to": [
        22.683493796193943,
        22.683493796191396,
        22.68349379618338
      ],
      "q_to": [
        -115471.66220657346,
        -115471.66220657344,
        -115471.66220657344
      ],
      "i_to": [
        19.047884727163716,
        19.047884727163716,
        19.047884727163716
      ]
    }
  ],
  "node": [
    {
      "id": 1,
      "u_pu": [
        1.0,
        0.9999999999999999,
        0.9999999999999999
      ],
      "u": [
        6062.177826491071,
        6062.17782649107,
        6062.17782649107
      ],
      "u_angle": [
        0.0,
        -2.0943951023931953,
        2.0943951023931953
      ]
    },
    {
      "id": 2,
      "u_pu": [
        1.000314180813433,
        1.000314180813433,
        1.000314180813433
      ],
      "u": [
        6064.082446451774,
        6064.082446451774,
        6064.082446451774
      ],
      "u_angle": [
        -0.0003928224703184611,
        -2.0947879248635135,
        2.094002279922877
      ]
    },
    {
      "id": 5,
      "u_pu": [
        1.0,
        0.9999999999999999,
        0.9999999999999999
      ],
      "u": [
        6062.177826491071,
        6062.17782649107,
        6062.17782649107
      ],
      "u_angle": [
        0.0,
        -2.0943951023931953,
        2.0943951023931953
      ]
    }
  ]
}