tests/data/power_flow/pandapower-asymmetric-source/pgm_asym_output.json
{
  "line": [
    {
      "id": 3,
      "energized": 1,
      "loading": 0.01904788472709185,
      "p_from": [
        22.683494326692674,
        22.68349433152498,
        22.683494331376952
      ],
      "q_from": [
        -115471.66220613803,
        -115471.66220610605,
        -115471.6622061224
      ],
      "i_from": [
        19.047884727091848,
        19.04788472708657,
        19.047884727089272
      ],
      "s_from": [
        115471.6644341345,
        115471.6644341025,
        115471.66443411888
      ],
      "p_to": [
        7.44546236804543e-12,
        4.102678268568811e-09,
        1.6418158536643285e-08
      ],
      "q_to": [
        1.8953757861755476e-08,
        -2.3708317226078465e-09,
        9.47043097132409e-09
      ],
      "i_to": [
        3.1255774458043964e-12,
        7.813943614510991e-13,
        3.1255774458043964e-12
      ],
      "s_to": [
        1.8953759324127955e-08,
        4.73843983103199e-09,
        1.8953759324127955e-08
      ]
    },
    {
      "id": 6,
      "energized": 1,
      "loading": 0.01904788472709185,
      "p_from": [
        7.44546236804543e-12,
        4.102678268568811e-09,
        1.6418158536643285e-08
      ],
      "q_from": [
        1.8953757861755476e-08,
        -2.3708317226078465e-09,
        9.47043097132409e-09
      ],
      "i_from": [
        3.1255774458043964e-12,
        7.813943614510991e-13,
        3.1255774458043964e-12
      ],
      "s_from": [
        1.8953759324127955e-08,
        4.73843983103199e-09,
        1.8953759324127955e-08
      ],
      "p_to": [
        22.683494326692674,
        22.68349433152498,
        22.683494331376952
      ],
      "q_to": [
        -115471.66220613803,
        -115471.66220610605,
        -115471.6622061224
      ],
      "i_to": [
        19.047884727091848,
        19.04788472708657,
        19.047884727089272
      ],
      "s_to": [
        115471.6644341345,
        115471.6644341025,
        115471.66443411888
      ]
    }
  ],
  "node": [
    {
      "id": 1,
      "energized": 1,
      "u_pu": [
        1.0000000000000033,
        1.0000000000000036,
        1.0000000000000033
      ],
      "u": [
        6062.177826491092,
        6062.177826491094,
        6062.177826491092
      ],
      "u_angle": [
        -3.4573853317126225e-16,
        -2.0943951023931957,
        2.0943951023931953
      ]
    },
    {
      "id": 2,
      "energized": 1,
      "u_pu": [
        1.0003141808134304,
        1.0003141808134306,
        1.0003141808134304
      ],
      "u": [
        6064.082446451758,
        6064.08244645176,
        6064.082446451758
      ],
      "u_angle": [
        -0.0003928224703186815,
        -2.094787924863514,
        2.094002279922877
      ]
    },
    {
      "id": 5,
      "energized": 1,
      "u_pu": [
        1.0000000000000033,
        1.0000000000000036,
        1.0000000000000033
      ],
      "u": [
        6062.177826491092,
        6062.177826491094,
        6062.177826491092
      ],
      "u_angle": [
        -3.4573853317126225e-16,
        -2.0943951023931957,
        2.0943951023931953
      ]
    }
  ],
  "source": [
    {
      "id": 4,
      "energized": 1,
      "p": [
        420.2912971740181,
        -4234.039146000984,
        -1226.9732072003046
      ],
      "q": [
        -111618.06222159236,
        -120014.31721291362,
        -114237.94368617267
      ],
      "i": [
        18.41233574874634,
        19.809544475885485,
        18.845460480037634
      ],
      "s": [
        111618.85350995927,
        120088.98127460206,
        114244.53265209826
      ],
      "pf": [
        0.0037654149272955692,
        -0.035257515727601996,
        -0.010739885565786587
      ]
    },
    {
      "id": 7,
      "energized": 1,
      "p": [
        420.2912971740181,
        -4234.039146000984,
        -1226.9732072003046
      ],
      "q": [
        -111618.06222159236,
        -120014.31721291362,
        -114237.94368617267
      ],
      "i": [
        18.41233574874634,
        19.809544475885485,
        18.845460480037634
      ],
      "s": [
        111618.85350995927,
        120088.98127460206,
        114244.53265209826
      ],
      "pf": [
        0.0037654149272955692,
        -0.035257515727601996,
        -0.010739885565786587
      ]
    }
  ]
}